72

O	0.0000	2.5292	5.9595
O	1.3147	1.3147	4.0334
O	0.0000	3.5364	3.5364
Si	0.0000	2.1728	4.3910
O	0.0000	9.3898	5.9595
O	5.9595	0.0000	2.5292
O	5.9595	0.0000	9.3898
O	2.5292	5.9595	0.0000
O	9.3898	5.9595	0.0000
O	2.5292	0.0000	5.9595
O	9.3898	0.0000	5.9595
O	0.0000	5.9595	9.3898
O	0.0000	5.9595	2.5292
O	5.9595	2.5292	0.0000
O	5.9595	9.3898	0.0000
O	10.6043	10.6043	4.0334
O	10.6043	1.3147	7.8856
O	1.3147	10.6043	7.8856
O	4.0334	1.3147	1.3147
O	4.0334	10.6043	10.6043
O	7.8856	10.6043	1.3147
O	7.8856	1.3147	10.6043
O	1.3147	4.0334	1.3147
O	10.6043	4.0334	10.6043
O	1.3147	7.8856	10.6043
O	10.6043	7.8856	1.3147
O	1.3147	1.3147	7.8856
O	10.6043	10.6043	7.8856
O	1.3147	10.6043	4.0334
O	10.6043	1.3147	4.0334
O	1.3147	4.0334	10.6043
O	10.6043	4.0334	1.3147
O	10.6043	7.8856	10.6043
O	1.3147	7.8856	1.3147
O	4.0334	1.3147	10.6043
O	4.0334	10.6043	1.3147
O	7.8856	1.3147	1.3147
O	7.8856	10.6043	10.6043
O	0.0000	8.3826	3.5364
O	0.0000	3.5364	8.3826
O	0.0000	8.3826	8.3826
O	3.5364	0.0000	3.5364
O	3.5364	0.0000	8.3826
O	8.3826	0.0000	3.5364
O	8.3826	0.0000	8.3826
O	3.5364	3.5364	0.0000
O	8.3826	3.5364	0.0000
O	3.5364	8.3826	0.0000
O	8.3826	8.3826	0.0000
Si	0.0000	9.7462	4.3910
Si	0.0000	2.1728	7.5280
Si	0.0000	9.7462	7.5280
Si	4.3910	0.0000	2.1728
Si	4.3910	0.0000	9.7462
Si	7.5280	0.0000	2.1728
Si	7.5280	0.0000	9.7462
Si	2.1728	4.3910	0.0000
Si	9.7462	4.3910	0.0000
Si	2.1728	7.5280	0.0000
Si	9.7462	7.5280	0.0000
Si	2.1728	0.0000	7.5280
Si	9.7462	0.0000	7.5280
Si	2.1728	0.0000	4.3910
Si	9.7462	0.0000	4.3910
Si	0.0000	4.3910	9.7462
Si	0.0000	4.3910	2.1728
Si	0.0000	7.5280	9.7462
Si	0.0000	7.5280	2.1728
Si	4.3910	2.1728	0.0000
Si	4.3910	9.7462	0.0000
Si	7.5280	2.1728	0.0000
Si	7.5280	9.7462	0.0000
